LAMMPS (2 Aug 2023)

# ----------------- Init Section -----------------
variable       dt equal 1 #timestep 1fs
variable       Tstart equal 300
variable       Ttarget equal 300

include "system.in.init"
units           real
boundary        p p p
atom_style      full
pair_style      lj/cut/coul/long 10.0
pair_modify     mix geometric
special_bonds   lj/coul 0.0 0.0 0.5
kspace_style    pppm 1.0e-4
bond_style      harmonic
angle_style     harmonic

# ----------------- Atom Definition Section -----------------

read_data "system.data"
Reading data file ...
  orthogonal box = (0 0 0) to (50 50 50)
  reading atoms ...
  15000 atoms
  scanning bonds ...
  scanning angles ...
  reading bonds ...
  10000 bonds
  reading angles ...
  5000 angles
Finding 1-2 1-3 1-4 neighbors ...
     2 = max # of 1-2 neighbors
     1 = max # of 1-3 neighbors
     1 = max # of 1-4 neighbors
     2 = max # of special neighbors

# ----------------- Settings Section -----------------

include "system.in.settings"
# -- Non-bonded interactions --
pair_coeff      1     1       0.140000   3.215000
pair_coeff 1 2 0.000000 0.000000
pair_coeff      2     2       0.000000   0.000000

# -- harmonic bondType parameter  --
bond_coeff      1               600.0000    0.960000

# -- harmonic angleType parameter  --
angle_coeff     1               75.0000  109.500000

velocity       all create 300 4581123 mom yes rot yes dist gaussian
timestep       1

thermo         100
thermo_style   custom step time temp press density vol etotal ke pe

min_style cg
minimize 1.0e-4 1.0e-6 10000 1000
PPPM initialization ...
  G vector (1/distance) = 0.26748773
  grid = 27 27 27
  stencil order = 5
  estimated absolute RMS force accuracy = 0.032193996
  estimated relative force accuracy = 9.6951263e-05
  3d grid and FFT values/proc = 3380 756
Generated 0 of 1 mixed pair_coeff terms from geometric mixing rule
Step          Time           Temp          Press         Density         Volume         TotEng         KinEng         PotEng
0   0              300            1.9739336e+10  1.1966109      125000         8.9961158e+09  13412.751      8.9961024e+09
Loop time of 3.9368 on 32 procs for 280 steps with 15000 atoms

Minimization stats:
  Stopping criterion = energy tolerance
  Energy initial, next-to-last, final =
  Force two-norm initial, final = 2.4062619e+11 114.6512
  Force max component initial, final = 1.3327239e+11 22.296879
  Final line search alpha, max atom move = 0.0040677034 0.090697092
  Iterations, force evaluations = 280 441

thermo         100
thermo_style   custom step time temp press density vol etotal ke pe

write_data minimize.data pair ij
System init for write_data ...
PPPM initialization ...
  G vector (1/distance) = 0.26748773
  grid = 27 27 27
  stencil order = 5
  estimated absolute RMS force accuracy = 0.032193996
  estimated relative force accuracy = 9.6951263e-05
  3d grid and FFT values/proc = 3380 756
Generated 0 of 1 mixed pair_coeff terms from geometric mixing rule
reset_timestep 0

fix              1 all npt temp 300 300 100 iso 1.0 1.0 1000.0
dump           dumpNPT all custom 1000 dump.npt.atom.* id type xs ys zs vx vy vz
run            1000
PPPM initialization ...
  G vector (1/distance) = 0.26748773
  grid = 27 27 27
  stencil order = 5
  estimated absolute RMS force accuracy = 0.032193996
  estimated relative force accuracy = 9.6951263e-05
  3d grid and FFT values/proc = 3380 756
Generated 0 of 1 mixed pair_coeff terms from geometric mixing rule
Step          Time           Temp          Press         Density         Volume         TotEng         KinEng         PotEng
0   0              300            9086.3534      1.1966109      125000        -51179.638      13412.751     -64592.389
Averages over the last 6 of 11 rows, steps 500 to 1000:
Temp Press Density Volume TotEng KinEng PotEng
271.178 1890.06 1.07537 139132 -40652.6 12124.2 -52776.8
Loop time of 5.6882 on 32 procs for 1000 steps with 15000 atoms

write_data npt.data pair ij
System init for write_data ...
PPPM initialization ...
  G vector (1/distance) = 0.2638072
  grid = 27 27 27
  stencil order = 5
  estimated absolute RMS force accuracy = 0.036672866
  estimated relative force accuracy = 0.00011043925
  3d grid and FFT values/proc = 3380 756
Generated 0 of 1 mixed pair_coeff terms from geometric mixing rule

unfix            1
undump           dumpNPT

fix              2 all nve
dump           dumpNVE all custom 1000 dump.nve.atom.* id type xs ys zs vx vy vz
run            000
PPPM initialization ...
  G vector (1/distance) = 0.2638072
  grid = 27 27 27
  stencil order = 5
  estimated absolute RMS force accuracy = 0.036672866
  estimated relative force accuracy = 0.00011043925
  3d grid and FFT values/proc = 3380 756
Generated 0 of 1 mixed pair_coeff terms from geometric mixing rule
Step          Time           Temp          Press         Density         Volume         TotEng         KinEng         PotEng
1000   1000           304.46381      1989.288       1.0502142      142424.63     -37304.106      13612.324     -50916.431
Loop time of 4.06428e-06 on 32 procs for 0 steps with 15000 atoms

write_data nvt.data pair ij
System init for write_data ...
PPPM initialization ...
  G vector (1/distance) = 0.2638072
  grid = 27 27 27
  stencil order = 5
  estimated absolute RMS force accuracy = 0.036672866
  estimated relative force accuracy = 0.00011043925
  3d grid and FFT values/proc = 3380 756
Generated 0 of 1 mixed pair_coeff terms from geometric mixing rule
